Version 4
SHEET 1 1188 680
WIRE 192 144 -32 144
WIRE 432 144 192 144
WIRE 432 176 432 144
WIRE 624 176 432 176
WIRE 624 192 624 176
WIRE -32 224 -32 144
WIRE 192 240 192 144
WIRE 432 304 432 176
WIRE 496 304 432 304
WIRE 928 304 752 304
WIRE 928 320 928 304
WIRE 928 432 928 400
WIRE 1040 432 928 432
WIRE 1136 432 1040 432
WIRE -32 448 -32 304
WIRE 192 448 192 304
WIRE 192 448 -32 448
WIRE 400 448 192 448
WIRE 1040 464 1040 432
WIRE 1136 464 1136 432
WIRE 624 496 624 416
WIRE 736 496 624 496
WIRE 928 496 928 432
WIRE 928 496 816 496
WIRE 400 608 400 448
WIRE 704 608 400 608
WIRE 1040 608 1040 528
WIRE 1040 608 704 608
WIRE 1136 608 1136 544
WIRE 1136 608 1040 608
WIRE 704 624 704 608
FLAG 704 624 0
SYMBOL PowerProducts/LT3083 624 304 R0
SYMATTR InstName U1
SYMBOL voltage -32 208 R0
SYMATTR InstName V1
SYMATTR Value 10
SYMBOL Res 912 304 R0
SYMATTR InstName R1
SYMATTR Value 0.33
SYMBOL Res 832 480 R90
WINDOW 0 0 56 VBottom 2
WINDOW 3 32 56 VTop 2
SYMATTR InstName R2
SYMATTR Value 20k
SYMBOL Res 1120 448 R0
SYMATTR InstName R3
SYMATTR Value 1
SYMBOL Cap 176 240 R0
SYMATTR InstName C1
SYMATTR Value 10µF
SYMBOL Cap 1024 464 R0
SYMATTR InstName C2
SYMATTR Value 10µF
TEXT -32 520 Left 2 !.tran 1
