Version 4
SHEET 1 1024 832
WIRE 592 -48 336 -48
WIRE 592 80 592 -48
WIRE 592 80 464 80
WIRE 240 96 176 96
WIRE 336 96 336 -48
WIRE 336 96 320 96
WIRE 368 96 336 96
WIRE 608 112 464 112
WIRE 176 224 176 96
WIRE 176 224 160 224
WIRE 176 256 176 224
WIRE 224 256 176 256
WIRE 368 272 320 272
WIRE 448 272 368 272
WIRE 608 272 608 112
WIRE 608 272 528 272
WIRE 656 272 608 272
WIRE 688 272 656 272
WIRE 224 288 176 288
WIRE 176 320 176 288
WIRE 176 320 160 320
WIRE 656 320 656 272
WIRE 608 352 608 272
WIRE 608 352 528 352
WIRE 176 400 176 320
WIRE 240 400 176 400
WIRE 368 400 368 272
WIRE 368 400 320 400
WIRE 528 432 528 352
WIRE 656 464 656 400
WIRE 656 464 592 464
WIRE 720 464 656 464
WIRE 720 480 720 464
WIRE 592 496 592 464
WIRE 592 592 592 560
WIRE 656 592 592 592
WIRE 720 592 720 560
WIRE 720 592 656 592
WIRE 528 608 528 512
WIRE 592 608 592 592
WIRE 592 608 528 608
WIRE 656 624 656 592
FLAG 48 16 0
FLAG -80 16 0
FLAG -80 -64 V+
FLAG 48 -64 V-
FLAG 432 144 V-
FLAG 256 224 V-
FLAG 432 48 V+
FLAG 256 320 V+
FLAG 688 272 VOUT
FLAG 656 624 0
FLAG 80 224 VP1
FLAG -112 384 VP1
FLAG 80 320 VP2
FLAG -112 464 0
FLAG -112 576 VP2
FLAG -112 656 0
SYMBOL OpAmps/LT6020 272 272 M180
SYMATTR InstName U1
SYMBOL OpAmps/LT6020 416 96 M0
SYMATTR InstName U2
SYMBOL Res 176 304 R90
WINDOW 0 0 56 VBottom 2
WINDOW 3 32 56 VTop 2
SYMATTR InstName R1
SYMATTR Value 100k
SYMBOL Res 64 240 R270
WINDOW 0 32 56 VTop 2
WINDOW 3 0 56 VBottom 2
SYMATTR InstName R2
SYMATTR Value 100k
SYMBOL Res 432 288 R270
WINDOW 0 32 56 VTop 2
WINDOW 3 0 56 VBottom 2
SYMATTR InstName R3
SYMATTR Value 5k
SYMBOL Res 336 384 R90
WINDOW 0 0 56 VBottom 2
WINDOW 3 32 56 VTop 2
SYMATTR InstName R4
SYMATTR Value 100k
SYMBOL Res 224 112 R270
WINDOW 0 32 56 VTop 2
WINDOW 3 0 56 VBottom 2
SYMATTR InstName R5
SYMATTR Value 100k
SYMBOL voltage -80 -80 R0
SYMATTR InstName V1
SYMATTR Value 12
SYMBOL voltage 48 -80 R0
SYMATTR InstName V2
SYMATTR Value -12
SYMBOL res 640 304 R0
SYMATTR InstName R6
SYMATTR Value 10k
SYMBOL voltage -112 368 R0
SYMATTR InstName V3
SYMATTR Value PULSE(0 1 100u 10n 10n 100u 1m 1)
SYMBOL voltage -112 560 R0
SYMATTR InstName V4
SYMATTR Value PULSE(0 1 220u 10n 10n 100u 1m 1)
SYMBOL Cap 576 496 R0
SYMATTR InstName C1
SYMATTR Value 10µ
SYMBOL Res 512 416 R0
SYMATTR InstName R7
SYMATTR Value 10000000
TEXT 696 696 Left 2 !.tran 10m
TEXT -288 752 Left 2 ;https://www.allaboutcircuits.com/technical-articles/how-to-design-a-precision-current-pump-with-op-amps/\nIOUT = VIN * AV / R3\nAV = R4/R2, R2=R3, R4=R5\n- Consider using https://www.analog.com/en/products/lt6023.html for 10x reduced power and slightly reduced slew rate.
